.model n18 nmos level=54 version=4.5
+vgs_max=1.98
+vgd_max=1.98
+vgb_max=1.98
+vds_max=1.98
+Vbs_max=1.98
+vbd_max=1.98
+lmin    = 1.8e-007        lmax    = 2.0e-005        wmin    = 2.2e-007        wmax    = 0.0001
+version = 4.5             binunit = 2               paramchk= 1               mobmod  = 0
+capmod  = 2               igcmod  = 1               igbmod  = 1               geomod  = 0
+diomod  = 2               rdsmod  = 0               rbodymod= 0               rgeomod = 1
+rgatemod= 0               permod  = 1               acnqsmod= 0               trnqsmod= 0
+tempmod = 0               wpemod  = 0  
+tnom    = 25              toxe    = 4.19e-009       dtox    = 3.36e-010       epsrox  = 3.9
+toxref  = 3e-009          wint    = 1.6229e-008     lint    = 9e-009          ll      = -7e-016
+wl      = 0               lln     = 1               wln     = 1               lw      = -3.5e-015
+ww      = -2.7e-015       lwn     = 1               wwn     = 1               lwl     = 0
+wwl     = -8e-022         llc     = 0               wlc     = 0               lwc     = 0
+wwc     = 0               lwlc    = 0               wwlc    = 0               xl      = -1.6e-008
+xw      = 4.2e-008   dlc     = 2.8339e-008     dwc     = -1.6e-008       dlcig   = 1e-012
+xpart   = 0
+vth0    = 0.4185           lvth0   = -1.495e-008       
+wvth0   = -1.16e-008     pvth0   = 1.8e-015
+k1      = 0.57819         wk1     = -1.7e-008       k2      = 0.0024336       lk2     = -1e-009
+wk2     = 2e-009          pk2     = 1.4699e-015     k3      = 3               k3b     = 3.76
+w0      = 1.5e-006        dvt0    = 1.14            ldvt0   = -6.124e-008     dvt1    = 0.22
+ldvt1   = 2e-009          dvt2    = -0.02944        dvt0w   = 0               dvt1w   = 5300000
+dvt2w   = -0.032          dsub    = 0.56            minv    = 0               voffl   = 0
+dvtp0   = 0               dvtp1   = 0               lambda  = 0               lpe0    = 1.8e-007
+llpe0   = 1.1e-016        lpeb    = 0               vbm     = -3              xj      = 1.6e-007
+ngate   = 3e+020          ndep    = 1.4563e+017     nsd     = 1e+020          phin    = 0.077042
+cdsc    = 0               ud      = 0               cdscb   = 0               cdscd   = 0.0001
+cit     = 0.00065      lcit    = 1.6e-010        pcit    = -1e-018      voff    = -0.15
+pvoff   = -5e-016         nfactor = 1               eta0    = 0.14            peta0   = -6e-016
+etab    = -0.07           petab   = 3.6e-015        vfb     = -1              u0      = 0.028012
+lu0     = 5.4e-010     wu0     = -4.51e-010      pu0     = 4.6575e-016    
+ua      = -1.8869e-009
+lua     = -3e-017         wua     = 7.6568e-017     pua     = 6.4915e-024     ub      = 3.515e-018
+lub     = 2.92e-026       wub     = -1.274e-025     pub     = -7.86e-033      uc      = 1.4426e-010
+luc     = 2.1688e-018     wuc     = -1.2768e-017    puc     = 8e-025          eu      = 1.67
+vsat    = 70000           lvsat   = 0.0006          pvsat   = 5.2036e-010       
+a0      = 1.6
+la0     = -4e-007         pa0     = 5e-014          ags     = 0.56            lags    = 1.5e-007
+wags    = -3e-008         pags    = 6e-014          a1      = 0               a2      = 0.99
+b0      = 0               b1      = 0               keta    = -0.045548       lketa   = -7.6454e-009
+wketa   = 1.0136e-008     pketa   = -1e-015         dwg     = 0               dwb     = 0
+pclm    = 0.31747         ppclm   = 4e-015          pdiblc1 = 0.04            pdiblc2 = 0.002
+pdiblcb = 0               drout   = 0.56            pvag    = 0               delta   = 0.001
+pscbe1  = 3.45e+008       pscbe2  = 1e-006          pdits   = 0               pditsd  = 0
+pditsl  = 0               rsh     = 7.6             rdsw    = 90              rsw     = 47
+rdw     = 47              rdswmin = 0               rdwmin  = 0               rswmin  = 0
+prwg    = 0               prwb    = 0               wr      = 1               alpha0  = 0
+alpha1  = 4.1739          lalpha1 = 2e-007          walpha1 = 4.64e-008       palpha1 = 2.5e-014
+beta0   = 15.901          agidl   = 8.5074e-007     wagidl  = 2e-013          bgidl   = 2.9037e+009
+wbgidl  = -50             cgidl   = 0.1             egidl   = 0.1             aigbacc = 0.43
+bigbacc = 0.054           cigbacc = 0.075           nigbacc = 1               aigbinv = 0.0088021
+bigbinv = 0.000949        cigbinv = 0.006           eigbinv = 1.1             nigbinv = 3
+aigc    = 0.015123        bigc    = 0.0017647       cigc    = 0.0702          aigsd   = 0.0038304
+waigsd  = -2e-010         paigsd  = -5e-018         bigsd   = 0.00030435      cigsd   = 0.19301
+nigc    = 1.288           poxedge = 1               pigcd   = 1               ntox    = 1
+cgso    = 1.8e-010   cgdo    = 1.8e-010   cgbo    = 0     
+cgdl    = 9e-011     cgsl    = 9e-011          
+clc     = 0                      cle     = 0.6             cf      = 8.54e-011
+vfbcv   = -1              acde    = 0.384           moin    = 13.3            noff    = 1.6804
+lnoff   = 1e-007          voffcv  = -0.020304       lvoffcv = -2.088e-009
+tvoff   = 0               kt1     = -0.24949        kt1l    = -2.9274e-009    kt2     = -0.05
+wkt2    = 4e-009          ute     = -1.4012         lute    = 1.48e-008       ua1     = 1.76e-009
+wua1    = -1.1e-016       pua1    = 1.625e-023      ub1     = -1.9392e-018    lub1    = -8.232e-026
+wub1    = 1e-026          pub1    = -3.12e-033      uc1     = 1.124e-010      luc1    = -1.62e-017
+puc1    = -3e-024         prt     = 0               at      = 31820           pat     = -2.1e-010
+fnoimod = 1               tnoimod = 0               em      = 54761.2         ef      = 0.98
+noia    = 6.24173e+041    noib    = 1.42569e+022    noic    = 6.62e+008       ntnoi   = 1
+lintnoi = -2e-008
+jss     = 1.1508e-006     jsws    = 1.4205e-014     jswgs   = 1.134e-013      njs     = 1.1294
+ijthsfwd= 0.1             ijthsrev= 0.1             bvs     = 11.5            xjbvs   = 1
+jtss    = 0               jtsd    = 0               jtssws  = 0               jtsswd  = 0
+jtsswgs = 2e-008          jtsswgd = 6e-009          njts    = 20              njtssw  = 20
+njtsswg = 20              xtss    = 0.02            xtsd    = 0.02            xtssws  = 0.02
+xtsswd  = 0.02            xtsswgs = 0.02            xtsswgd = 0.02            tnjts   = 0
+tnjtssw = 0               tnjtsswg= 0               pbs     = 0.70413         cjs     = 0.00098714
+mjs     = 0.34744         pbsws   = 0.58719         cjsws   = 5.8272e-011     mjsws   = 0.19672
+pbswgs  = 1.6255          cjswgs  = 3.7e-010        mjswgs  = 0.84898         tpb     = 0.001
+tcj     = 0.00083836      tpbsw   = 0.000868        tcjsw   = 0.0014935       tpbswg  = 0.0015811
+tcjswg  = 0.0006583       xtis    = 3
+dmcg    = 2.7e-007        dmci    = 2.7e-007       dwj     = 0               xgw     = 0
+xgl     = 0
+web     = 0               wec     = 0               scref   = 1e-006          kvth0we = 0
+k2we    = 0               ku0we   = 0               saref   = 4.48e-006       sbref   = 4.48e-006
+wlod    = 0               kvth0   = 3.5e-009        lkvth0  = -6e-008         wkvth0  = 1e-007
+pkvth0  = 2e-014          llodvth = 1               wlodvth = 1               stk2    = 0
+lodk2   = 1               lodeta0 = 1               ku0     = -4.5e-008       lku0    = 7e-007
+wku0    = 5e-007          pku0    = 7e-013          llodku0 = 1               wlodku0 = 1
+kvsat   = 1               steta0  = 0               tku0    = 0
