.model p18 pmos level=54 version=4.5
+vgs_max=1.98 
+vgd_max=1.98
+vgb_max=1.98
+vds_max=1.98
+Vbs_max=1.98
+vbd_max=1.98
+lmin    = 1.8e-007        lmax    = 2.0e-005        wmin    = 2.2e-007        wmax    = 0.0001
+version = 4.5             binunit = 2               paramchk= 1               mobmod  = 0
+capmod  = 2               igcmod  = 1               igbmod  = 1               geomod  = 0
+diomod  = 2               rdsmod  = 0               rbodymod= 0               rgeomod = 1
+rgatemod= 0               permod  = 1               acnqsmod= 0               trnqsmod= 0
+tempmod = 0               wpemod  = 0
+tnom    = 25              toxe    = 4.27e-009       dtox    = 4.49e-010       epsrox  = 3.9
+toxref  = 3e-009          wint    = 8e-009          lint    = -3.8e-008       ll      = 5.8e-015
+wl      = 4e-015          lln     = 1               wln     = 1               lw      = -5e-015
+ww      = -2.9e-015       lwn     = 1               wwn     = 1               lwl     = 2.1e-022
+wwl     = -1.6e-021       llc     = 0               wlc     = 0               lwc     = 0
+wwc     = 0               lwlc    = 0               wwlc    = 0               xl      = -1.3e-008
+xw      = 4.2e-008        dlc     = 4.5009e-008     dwc     = -1.5e-008       dlcig   = 1e-012
+xpart   = 0
+vth0    = -0.424      lvth0   = 6.0043e-009       
+wvth0   = 7.0678e-009        pvth0   = -2.5096e-015
+k1      = 0.59936         wk1     = -1.224e-008     pk1     = 4.864e-016      k2      = 0.001
+lk2     = 1.6077e-009     k3      = 10              k3b     = -0.52           w0      = 9.0826e-006
+dvt0    = 0.10912         dvt1    = 0.7             pdvt1   = -2e-014         dvt2    = -0.04
+dvt0w   = 0               dvt1w   = 5724000         dvt2w   = -0.032          dsub    = 0.56
+minv    = 0       lminv    = 0                 
+voffl   = 0               dvtp0   = 0               dvtp1   = 0
+lambda  = 0               lpe0    = 8.3442e-008  llpe0   = -3.1e-015     lpeb    = 0
+vbm     = -3              xj      = 1.6e-007        ngate   = 1.4e+020        ndep    = 1.0196e+017
+nsd     = 1e+020          phin    = 0.00784         cdsc    = 0               ud      = 0
+cdscb   = 0               cdscd   = 0.0001          cit     = 0.0012          lcit    = 1.6e-010
+pcit    = 4.5e-017        voff    = -0.13138        nfactor = 1               eta0    = 0.197
+leta0   = -8e-009         peta0   = 1e-015          etab    = -0.16842        vfb     = -1
+u0      = 0.0095          lu0     = 6.4546e-010        
+wu0     = -4.8639e-010     pu0     = -5.65e-017
+ua      = 4.5895e-010     lua     = -5.1955e-017    wua     = -1.9101e-016    pua     = -8.5072e-024
+ub      = 1.186e-018      lub     = 1.8e-025        wub     = -3.4e-026       pub     = -2.9e-032
+uc      = -9e-013         luc     = 2.66e-017       wuc     = -3.1137e-017    puc     = -5e-024
+eu      = 1               vsat    = 90000           
+lvsat   = 0.017934           pvsat   = -4.2733e-009
+a0      = 1.3             ags     = 0.36618         lags    = 1.5e-007        wags    = 2.4972e-008
+pags    = -8e-014         a1      = 0               a2      = 0.99            b0      = 1.5e-008
+b1      = 0               keta    = -0.02492        lketa   = -1.3175e-009    wketa   = 2e-008
+pketa   = -1.2e-015       dwg     = 0               dwb     = 0               pclm    = 0.45942
+pdiblc1 = 1e-006          pdiblc2 = 0.00316         lpdiblc2= 1.4e-009        pdiblcb = 0
+drout   = 0.56            pvag    = 0               delta   = 0.0049056       pscbe1  = 3.45e+008
+pscbe2  = 1e-006          pdits   = 0               pditsd  = 0               pditsl  = 0
+rsh     = 6.75            rdsw    = 560             rsw     = 280             rdw     = 0
+rdswmin = 0               rdwmin  = 0               rswmin  = 0               prwg    = 0.4
+prwb    = 0               wr      = 1               alpha0  = 1e-007          alpha1  = 6.3468
+lalpha1 = 3.125e-007      walpha1 = 7.4012e-006     beta0   = 22.77           wbeta0  = 7.2864e-007
+agidl   = 1e-007          bgidl   = 2.7937e+009     pbgidl  = -2.2e-005       cgidl   = 0.2027
+egidl   = 0.084           aigbacc = 0.38872         bigbacc = 0.056592        cigbacc = 0.0726
+nigbacc = 1.112           aigbinv = 0.0094803       bigbinv = 0.000949        cigbinv = 0.006
+eigbinv = 1.1             nigbinv = 3               aigc    = 0.0092217       bigc    = 0.0019436
+cigc    = 0.0702          aigsd   = 0.0029613       bigsd   = 0.00013888      cigsd   = 0.0786
+nigc    = 1.288           poxedge = 1               pigcd   = 1               ntox    = 1
+cgso    = 2.1e-010        cgdo    = 2.1e-010        cgbo    = 0               
+cgdl    = 1.761e-010      cgsl    = 1.761e-010      
+clc     = 0               cle     = 0.6             cf      = 8.5e-011
+vfbcv   = -1              acde    = 0.57425         lacde   = -1.92e-008      moin    = 5
+noff    = 1.9376          lnoff   = 1.232e-007      voffcv  = -0.001          lvoffcv = -6.728e-009
+tvoff   = 0               kt1     = -0.27376        kt1l    = -8.3e-009       kt2     = -0.04384
+ute     = -1.049          lute    = -3e-008         wute    = 3e-008          ua1     = 1.76e-009
+lua1    = -7.62e-017      wua1    = -8.0657e-017    pua1    = -5.64e-025      ub1     = -3.2196e-018
+lub1    = -1.6264e-025    wub1    = 3.1968e-025     pub1    = 3.6e-032        uc1     = -1e-010
+luc1    = 5.848e-018      wuc1    = 3e-017          puc1    = -3.5839e-024    prt     = 0
+at      = 500             pat     = -1.776e-009
+fnoimod = 1               tnoimod = 0               em      = 54761.2         ef      = 1.1
+noia    = 8e+041          noib    = 1.42569e+022    noic    = 1.20341e+010    ntnoi   = 1
+lintnoi = -3e-008
+jss     = 3.1581e-007     jsws    = 5.4158e-015     jswgs   = 1.7175e-013     njs     = 1.0918
+ijthsfwd= 0.1             ijthsrev= 0.1             bvs     = 10.8            xjbvs   = 1
+jtss    = 0               jtsd    = 0               jtssws  = 0               jtsswd  = 0
+jtsswgs = 1e-011          jtsswgd = 5e-009          njts    = 20              njtssw  = 20
+njtsswg = 20              xtss    = 0.02            xtsd    = 0.02            xtssws  = 0.02
+xtsswd  = 0.02            xtsswgs = 0.02            xtsswgd = 0.02            tnjts   = 0
+tnjtssw = 0               tnjtsswg= 0               pbs     = 0.79266         cjs     = 0.0011056
+mjs     = 0.41824         pbsws   = 0.76922         cjsws   = 8.7408e-011   mjsws   = 0.2959
+pbswgs  = 0.74096         cjswgs  = 4.2e-010    mjswgs  = 0.43777         tpb     = 0.00038165
+tcj     = 0.00084383      tpbsw   = 0.0009004       tcjsw   = 0.0014196       tpbswg  = 0.0020341
+tcjswg  = 0.00088262      xtis    = 3
+dmcg    = 2.7e-007        dmci    = 2.7e-007       dwj     = 0               xgw     = 0
+xgl     = 0
+web     = 0               wec     = 0               scref   = 1e-006          kvth0we = 0
+k2we    = 0               ku0we   = 0               saref   = 4.48e-006       sbref   = 4.48e-006
+wlod    = 0               kvth0   = -1e-010         lkvth0  = -1e-007         wkvth0  = -2e-007
+pkvth0  = 2e-014          llodvth = 1               wlodvth = 1               stk2    = 0
+lodk2   = 1               lodeta0 = 1               ku0     = 8e-008          lku0    = 1.5e-007
+wku0    = 0               pku0    = 2e-014          llodku0 = 1               wlodku0 = 1
+kvsat   = -1              steta0  = 0               tku0    = 0
