* PTM 130nm BSIM4 (Level 54) Model Cards
* Source: Predictive Technology Model (PTM)
* Adapted for Mixed_ngspice BSIM4v5 FP32 testing
* Vdd nominal = 1.3V

.model nmos nmos level = 54
+version = 4.2.1  binunit = 1  paramchk = 1  mobmod = 0
+capmod = 2  igcmod = 1  igbmod = 1  geomod = 1
+diomod = 1  rdsmod = 0  rbodymod = 1  rgatemod = 1
+permod = 1  acnqsmod = 0  trnqsmod = 0
+tnom = 27  epsrox = 3.9
+vth0 = 0.388    k1 = 0.474    k2 = 0.0       k3 = 0.0
+k3b = 0.0       w0 = 2.5e-06  dvt0 = 1.0     dvt1 = 2.0
+dvt2 = 0.0      dvt0w = 0.0   dvt1w = 0.0    dvt2w = 0.0
+u0 = 0.05852    ua = 1.0e-09  ub = 1.0e-18   uc = 1.0e-10
+vsat = 100370   a0 = 1.0      ags = 0.0       a1 = 0.0
+a2 = 1.0        b0 = 0.0      b1 = 0.0        keta = 0.0
+wint = 5.0e-09  lint = 1.0e-08 dwg = 0.0      dwb = 0.0
+voff = -0.08    nfactor = 2.0 cit = 0.0       cdsc = 0.0
+cdscb = 0.0     cdscd = 0.0   eta0 = 0.08     etab = -0.07
+dsub = 0.56     pclm = 1.3    pdiblc1 = 0.1    pdiblc2 = 0.005
+pdiblcb = 0.0   drout = 0.5   pscbe1 = 4.24e8 pscbe2 = 1.0e-5
+pvag = 0.0      delta = 0.01  alpha0 = 0.0    alpha1 = 0.0
+beta0 = 30.0    rdsw = 200.0  prwg = 0.0      prwb = 0.0
+wr = 1.0        wf = 1.0      ww = 0.0        wwl = 0.0
+wln = 1.0       wwn = 1.0     ll = 0.0         lw = 0.0
+lwl = 0.0       lln = 1.0     lwn = 1.0        clc = 0.1e-06
+cle = 0.6       cf = 0.0      dwc = 0.0        dlc = 0.0
+xpart = 0.5     cgso = 1.5e-10 cgdo = 1.5e-10  cgbo = 1.0e-12
+toxe = 2.25e-09 toxp = 1.6e-09 toxm = 2.25e-09 toxref = 2.25e-09
+dtox = 6.5e-10  cj = 0.001    mj = 0.4         cjsw = 1.5e-10
+mjsw = 0.3      pb = 1.0      pbsw = 1.0       php = 1.0
+kt1 = -0.11     kt1l = 0.0    kt2 = 0.022      ute = -1.5
+ua1 = 1.0e-09   ub1 = -1.0e-18 uc1 = -1.0e-10  at = 33000
+prt = 0.0       jss = 0.0     jsws = 0.0       jswgs = 0.0
+njts = 20.0     xti = 3.0

.model pmos pmos level = 54
+version = 4.2.1  binunit = 1  paramchk = 1  mobmod = 0
+capmod = 2  igcmod = 1  igbmod = 1  geomod = 1
+diomod = 1  rdsmod = 0  rbodymod = 1  rgatemod = 1
+permod = 1  acnqsmod = 0  trnqsmod = 0
+tnom = 27  epsrox = 3.9
+vth0 = -0.337   k1 = 0.433    k2 = 0.0       k3 = 0.0
+k3b = 0.0       w0 = 2.5e-06  dvt0 = 1.0     dvt1 = 2.0
+dvt2 = 0.0      dvt0w = 0.0   dvt1w = 0.0    dvt2w = 0.0
+u0 = 0.00796    ua = 1.0e-09  ub = 1.0e-18   uc = -1.0e-10
+vsat = 70000    a0 = 1.0      ags = 0.0       a1 = 0.0
+a2 = 1.0        b0 = 0.0      b1 = 0.0        keta = 0.0
+wint = 5.0e-09  lint = 1.0e-08 dwg = 0.0      dwb = 0.0
+voff = -0.08    nfactor = 2.0 cit = 0.0       cdsc = 0.0
+cdscb = 0.0     cdscd = 0.0   eta0 = 0.08     etab = -0.07
+dsub = 0.56     pclm = 1.3    pdiblc1 = 0.1    pdiblc2 = 0.005
+pdiblcb = 0.0   drout = 0.5   pscbe1 = 4.24e8 pscbe2 = 1.0e-5
+pvag = 0.0      delta = 0.01  alpha0 = 0.0    alpha1 = 0.0
+beta0 = 30.0    rdsw = 400.0  prwg = 0.0      prwb = 0.0
+wr = 1.0        wf = 1.0      ww = 0.0        wwl = 0.0
+wln = 1.0       wwn = 1.0     ll = 0.0         lw = 0.0
+lwl = 0.0       lln = 1.0     lwn = 1.0        clc = 0.1e-06
+cle = 0.6       cf = 0.0      dwc = 0.0        dlc = 0.0
+xpart = 0.5     cgso = 1.5e-10 cgdo = 1.5e-10  cgbo = 1.0e-12
+toxe = 2.35e-09 toxp = 1.6e-09 toxm = 2.35e-09 toxref = 2.35e-09
+dtox = 7.5e-10  cj = 0.001    mj = 0.4         cjsw = 1.5e-10
+mjsw = 0.3      pb = 1.0      pbsw = 1.0       php = 1.0
+kt1 = -0.11     kt1l = 0.0    kt2 = 0.022      ute = -1.5
+ua1 = 1.0e-09   ub1 = -1.0e-18 uc1 = -1.0e-10  at = 33000
+prt = 0.0       jss = 0.0     jsws = 0.0       jswgs = 0.0
+njts = 20.0     xti = 3.0
